;*****************************************************
;*             Generated from MIKE URBAN+            *
;*****************************************************

[TITLE]

[JUNCTIONS]
;------------------------------------------------------
;ID                 Elevation    Demand       Pattern
;------------------------------------------------------
Junction_1         1516.000000  
Junction_10        1594.000000  
Junction_100       1606.000000  
Junction_1000      1647.000000  
Junction_1001      1655.000000  
Junction_10013     1597.000000  
Junction_1002      1655.000000  
Junction_1003      1655.000000  
Junction_1004      1655.000000  
Junction_1005      1650.000000  
Junction_1006      1655.000000  
Junction_1007      1653.000000  
Junction_1008      1653.000000  
Junction_1009      1653.000000  
Junction_101       1422.000000  
Junction_1010      1653.000000  
Junction_1011      1653.000000  
Junction_1012      1653.000000  
Junction_1013      1644.000000  
Junction_1014      1642.000000  
Junction_1015      1656.000000  
Junction_1016      1656.000000  
Junction_1017      1641.000000  
Junction_1018      1641.000000  
Junction_1019      1642.000000  
Junction_102       1613.000000  
Junction_1020      1642.000000  
Junction_1021      1642.000000  
Junction_1022      1642.000000  
Junction_1023      1637.000000  
Junction_1024      1637.000000  
Junction_1025      1632.000000  
Junction_1026      1634.000000  
Junction_1027      1611.000000  
Junction_1028      1619.000000  
Junction_1029      1655.000000  
Junction_103       1564.000000  
Junction_1030      1655.000000  
Junction_1031      1691.000000  
Junction_1032      1690.000000  
Junction_1033      1693.000000  
Junction_1034      1690.000000  
Junction_1035      1659.000000  
Junction_1036      1659.000000  
Junction_1037      1659.000000  
Junction_1038      1648.000000  
Junction_1039      1697.000000  
Junction_104       1564.000000  
Junction_1040      1687.000000  
Junction_1041      1660.000000  
Junction_1042      1648.000000  
Junction_1043      1648.000000  
Junction_1044      1648.000000  
Junction_1045      1660.000000  
Junction_1046      1660.000000  
Junction_1047      1650.000000  
Junction_1048      1660.000000  
Junction_1049      1670.000000  
Junction_105       1533.000000  
Junction_1050      1670.000000  
Junction_1051      1670.000000  
Junction_1052      1670.000000  
Junction_1053      1656.000000  
Junction_1054      1656.000000  
Junction_1055      1656.000000  
Junction_1056      1656.000000  
Junction_1057      1656.000000  
Junction_1058      1656.000000  
Junction_1059      1656.000000  
Junction_106       1564.000000  
Junction_1060      1656.000000  
Junction_1061      1656.000000  
Junction_1062      1656.000000  
Junction_1063      1656.000000  
Junction_1064      1656.000000  
Junction_1065      1656.000000  
Junction_1066      1656.000000  
Junction_1067      1670.000000  
Junction_1068      1666.000000  
Junction_1069      1666.000000  
Junction_107       1432.000000  
Junction_1070      1668.000000  
Junction_1071      1657.000000  
Junction_1072      1651.000000  
Junction_1073      1659.000000  
Junction_1074      1648.000000  
Junction_1075      1659.000000  
Junction_1076      1659.000000  
Junction_1077      1655.000000  
Junction_1078      1648.000000  
Junction_1079      1652.000000  
Junction_108       1420.000000  
Junction_1080      1655.000000  
Junction_1081      1655.000000  
Junction_1082      1646.000000  
Junction_1083      1646.000000  
Junction_1084      1646.000000  
Junction_1085      1646.000000  
Junction_1086      1645.000000  
Junction_1087      1653.000000  
Junction_1088      1653.000000  
Junction_1089      1653.000000  
Junction_109       1388.000000  
Junction_1090      1653.000000  
Junction_1091      1653.000000  
Junction_1092      1653.000000  
Junction_1093      1653.000000  
Junction_1094      1659.000000  
Junction_1095      1662.000000  
Junction_1096      1662.000000  
Junction_1097      1662.000000  
Junction_1098      1655.000000  
Junction_1099      1655.000000  
Junction_11        1599.000000  
Junction_110       1388.000000  
Junction_1100      1655.000000  
Junction_1101      1662.000000  
Junction_1102      1655.000000  
Junction_1103      1650.000000  
Junction_1104      1659.000000  
Junction_1105      1659.000000  
Junction_1106      1659.000000  
Junction_1107      1659.000000  
Junction_1108      1659.000000  
Junction_1109      1666.000000  
Junction_111       1411.000000  
Junction_1110      1666.000000  
Junction_1111      1666.000000  
Junction_1112      1662.000000  
Junction_1113      1662.000000  
Junction_1114      1666.000000  
Junction_1115      1663.000000  
Junction_1116      1666.000000  
Junction_1117      1659.000000  
Junction_1118      1659.000000  
Junction_1119      1663.000000  
Junction_112       1431.000000  
Junction_1120      1663.000000  
Junction_1121      1663.000000  
Junction_1122      1663.000000  
Junction_1123      1663.000000  
Junction_1124      1663.000000  
Junction_1125      1663.000000  
Junction_1126      1663.000000  
Junction_1127      1663.000000  
Junction_1128      1663.000000  
Junction_1129      1663.000000  
Junction_113       1413.000000  
Junction_1130      1662.000000  
Junction_1131      1662.000000  
Junction_1132      1666.000000  
Junction_1133      1662.000000  
Junction_1134      1666.000000  
Junction_1135      1669.000000  
Junction_1136      1670.000000  
Junction_1137      1669.000000  
Junction_1138      1667.000000  
Junction_1139      1669.000000  
Junction_114       1432.000000  
Junction_1140      1670.000000  
Junction_1141      1669.000000  
Junction_1142      1670.000000  
Junction_1143      1670.000000  
Junction_1144      1669.000000  
Junction_1145      1663.000000  
Junction_1146      1666.000000  
Junction_1147      1666.000000  
Junction_1148      1670.000000  
Junction_1149      1670.000000  
Junction_115       1453.000000  
Junction_1150      1669.000000  
Junction_1151      1669.000000  
Junction_1152      1669.000000  
Junction_1153      1669.000000  
Junction_1154      1663.000000  
Junction_1155      1663.000000  
Junction_1156      1669.000000  
Junction_1157      1669.000000  
Junction_1158      1669.000000  
Junction_1159      1669.000000  
Junction_116       1504.000000  
Junction_1160      1669.000000  
Junction_1161      1669.000000  
Junction_1162      1656.000000  
Junction_1163      1656.000000  
Junction_1164      1655.000000  
Junction_1165      1656.000000  
Junction_1166      1656.000000  
Junction_1167      1656.000000  
Junction_1168      1655.000000  
Junction_1169      1655.000000  
Junction_117       1374.000000  
Junction_1170      1643.000000  
Junction_1171      1643.000000  
Junction_1172      1643.000000  
Junction_1173      1643.000000  
Junction_1174      1634.000000  
Junction_1175      1634.000000  
Junction_1176      1628.000000  
Junction_1177      1628.000000  
Junction_1178      1628.000000  
Junction_1179      1628.000000  
Junction_118       1357.000000  
Junction_1180      1628.000000  
Junction_1181      1628.000000  
Junction_1182      1623.000000  
Junction_1183      1623.000000  
Junction_1184      1623.000000  
Junction_1185      1623.000000  
Junction_1186      1619.000000  
Junction_1187      1619.000000  
Junction_1188      1619.000000  
Junction_1189      1619.000000  
Junction_119       1433.000000  
Junction_1190      1618.000000  
Junction_1191      1618.000000  
Junction_1192      1618.000000  
Junction_1193      1618.000000  
Junction_1194      1618.000000  
Junction_1195      1618.000000  
Junction_1196      1618.000000  
Junction_1197      1618.000000  
Junction_1198      1669.000000  
Junction_1199      1669.000000  
Junction_12        1399.000000  
Junction_120       1586.000000  
Junction_1200      1664.000000  
Junction_1201      1663.000000  
Junction_1202      1663.000000  
Junction_1203      1663.000000  
Junction_1204      1664.000000  
Junction_1205      1663.000000  
Junction_1206      1663.000000  
Junction_1207      1663.000000  
Junction_1208      1663.000000  
Junction_1209      1663.000000  
Junction_121       1586.000000  
Junction_1210      1663.000000  
Junction_1211      1663.000000  
Junction_1212      1660.000000  
Junction_1213      1663.000000  
Junction_1214      1660.000000  
Junction_1215      1660.000000  
Junction_1216      1660.000000  
Junction_1217      1660.000000  
Junction_1218      1660.000000  
Junction_1219      1660.000000  
Junction_122       1539.000000  
Junction_1220      1660.000000  
Junction_1221      1660.000000  
Junction_1222      1660.000000  
Junction_1223      1660.000000  
Junction_1224      1657.000000  
Junction_1225      1660.000000  
Junction_1226      1658.000000  
Junction_1227      1660.000000  
Junction_1228      1594.000000  
Junction_1229      1594.000000  
Junction_123       1482.000000  
Junction_1230      1587.000000  
Junction_1231      1587.000000  
Junction_1232      1586.000000  
Junction_1233      1586.000000  
Junction_1234      1586.000000  
Junction_1235      1586.000000  
Junction_1236      1586.000000  
Junction_1237      1586.000000  
Junction_1238      1588.000000  
Junction_1239      1586.000000  
Junction_124       1492.000000  
Junction_1240      1586.000000  
Junction_1241      1588.000000  
Junction_1242      1586.000000  
Junction_1243      1586.000000  
Junction_1244      1585.000000  
Junction_1245      1587.000000  
Junction_1246      1585.000000  
Junction_1247      1585.000000  
Junction_1248      1585.000000  
Junction_1249      1585.000000  
Junction_125       1583.000000  
Junction_1250      1583.000000  
Junction_1251      1583.000000  
Junction_1252      1588.000000  
Junction_1253      1583.000000  
Junction_1254      1587.000000  
Junction_1255      1583.000000  
Junction_1256      1592.000000  
Junction_1257      1598.000000  
Junction_1258      1588.000000  
Junction_1259      1588.000000  
Junction_126       1571.000000  
Junction_1260      1588.000000  
Junction_1261      1591.000000  
Junction_1262      1591.000000  
Junction_1263      1591.000000  
Junction_1264      1590.000000  
Junction_1265      1590.000000  
Junction_1266      1646.000000  
Junction_1267      1645.000000  
Junction_1268      1645.000000  
Junction_1269      1645.000000  
Junction_127       1521.000000  
Junction_1270      1648.000000  
Junction_1271      1640.000000  
Junction_1272      1640.000000  
Junction_1273      1640.000000  
Junction_1274      1640.000000  
Junction_1275      1634.000000  
Junction_1276      1644.000000  
Junction_1277      1634.000000  
Junction_1278      1644.000000  
Junction_1279      1637.000000  
Junction_128       1467.000000  
Junction_1280      1645.000000  
Junction_1281      1632.000000  
Junction_1282      1632.000000  
Junction_1283      1648.000000  
Junction_1284      1648.000000  
Junction_1285      1659.000000  
Junction_1286      1633.000000  
Junction_1287      1648.000000  
Junction_1288      1648.000000  
Junction_1289      1534.000000  
Junction_129       1467.000000  
Junction_1290      1534.000000  
Junction_1291      1534.000000  
Junction_1292      1534.000000  
Junction_1293      1537.000000  
Junction_1294      1537.000000  
Junction_1295      1544.000000  
Junction_1296      1544.000000  
Junction_1297      1544.000000  
Junction_1298      1544.000000  
Junction_1299      1544.000000  
Junction_13        1401.000000  
Junction_130       1542.000000  
Junction_1300      1544.000000  
Junction_1301      1544.000000  
Junction_1302      1544.000000  
Junction_1303      1544.000000  
Junction_1304      1544.000000  
Junction_1305      1544.000000  
Junction_1306      1540.000000  
Junction_1307      1544.000000  
Junction_1308      1538.000000  
Junction_1309      1544.000000  
Junction_131       1465.000000  
Junction_1310      1544.000000  
Junction_1311      1542.000000  
Junction_1312      1544.000000  
Junction_1313      1542.000000  
Junction_1314      1538.000000  
Junction_1315      1542.000000  
Junction_1316      1542.000000  
Junction_1317      1542.000000  
Junction_1318      1539.000000  
Junction_1319      1542.000000  
Junction_132       1411.000000  
Junction_1320      1539.000000  
Junction_1321      1539.000000  
Junction_1322      1539.000000  
Junction_1323      1539.000000  
Junction_1324      1539.000000  
Junction_1325      1551.000000  
Junction_1326      1547.000000  
Junction_1327      1551.000000  
Junction_1328      1547.000000  
Junction_1329      1555.000000  
Junction_133       1595.000000  
Junction_1330      1555.000000  
Junction_1331      1555.000000  
Junction_1332      1555.000000  
Junction_1333      1553.000000  
Junction_1334      1559.000000  
Junction_1335      1553.000000  
Junction_1336      1553.000000  
Junction_1337      1554.000000  
Junction_1338      1554.000000  
Junction_1339      1554.000000  
Junction_134       1607.000000  
Junction_1340      1554.000000  
Junction_1341      1542.000000  
Junction_1342      1542.000000  
Junction_1343      1542.000000  
Junction_1344      1542.000000  
Junction_1345      1544.000000  
Junction_1346      1542.000000  
Junction_1347      1544.000000  
Junction_1348      1544.000000  
Junction_1349      1554.000000  
Junction_135       1567.000000  
Junction_1350      1555.000000  
Junction_1351      1552.000000  
Junction_1352      1552.000000  
Junction_1353      1554.000000  
Junction_1354      1550.000000  
Junction_1355      1550.000000  
Junction_1356      1553.000000  
Junction_1357      1427.000000  
Junction_1358      1427.000000  
Junction_1359      1427.000000  
Junction_136       1575.000000  
Junction_1360      1427.000000  
Junction_1363      1553.000000  
Junction_1364      1553.000000  
Junction_1365      1553.000000  
Junction_1366      1553.000000  
Junction_1367      1458.000000  
Junction_1368      1458.000000  
Junction_1369      1459.000000  
Junction_137       1622.000000  
Junction_1370      1459.000000  
Junction_1371      1459.000000  
Junction_1372      1459.000000  
Junction_1373      1472.000000  
Junction_1374      1472.000000  
Junction_1375      1479.000000  
Junction_1376      1477.000000  
Junction_1377      1465.000000  
Junction_1378      1465.000000  
Junction_1379      1461.000000  
Junction_138       1615.000000  
Junction_1380      1461.000000  
Junction_1381      1461.000000  
Junction_1382      1461.000000  
Junction_1383      1477.000000  
Junction_1384      1477.000000  
Junction_1385      1469.000000  
Junction_1386      1467.000000  
Junction_1387      1477.000000  
Junction_1388      1477.000000  
Junction_1389      1468.000000  
Junction_139       1580.000000  
Junction_1390      1468.000000  
Junction_1391      1486.000000  
Junction_1392      1486.000000  
Junction_1393      1490.000000  
Junction_1394      1486.000000  
Junction_1395      1498.000000  
Junction_1396      1498.000000  
Junction_1397      1492.000000  
Junction_1398      1498.000000  
Junction_1399      1498.000000  
Junction_14        1410.000000  
Junction_140       1630.000000  
Junction_1400      1498.000000  
Junction_1401      1492.000000  
Junction_1402      1486.000000  
Junction_1403      1511.000000  
Junction_1404      1511.000000  
Junction_1405      1519.000000  
Junction_1406      1519.000000  
Junction_1407      1519.000000  
Junction_1408      1519.000000  
Junction_1409      1519.000000  
Junction_141       1586.000000  
Junction_1410      1519.000000  
Junction_1411      1519.000000  
Junction_1412      1530.000000  
Junction_1413      1519.000000  
Junction_1414      1530.000000  
Junction_1415      1530.000000  
Junction_1416      1530.000000  
Junction_1417      1515.000000  
Junction_1418      1515.000000  
Junction_1419      1527.000000  
Junction_142       1617.000000  
Junction_1420      1514.000000  
Junction_1421      1514.000000  
Junction_1422      1514.000000  
Junction_1423      1510.000000  
Junction_1424      1514.000000  
Junction_1425      1520.000000  
Junction_1426      1520.000000  
Junction_1427      1501.000000  
Junction_1428      1513.000000  
Junction_1429      1520.000000  
Junction_143       1615.000000  
Junction_1430      1513.000000  
Junction_1431      1513.000000  
Junction_1432      1513.000000  
Junction_1433      1513.000000  
Junction_1434      1513.000000  
Junction_1435      1510.000000  
Junction_1436      1510.000000  
Junction_1437      1503.000000  
Junction_1438      1513.000000  
Junction_1439      1510.000000  
Junction_144       1625.000000  
Junction_1440      1510.000000  
Junction_1441      1516.000000  
Junction_1442      1516.000000  
Junction_1443      1516.000000  
Junction_1444      1516.000000  
Junction_1445      1516.000000  
Junction_1446      1516.000000  
Junction_1447      1520.000000  
Junction_1448      1520.000000  
Junction_1449      1534.000000  
Junction_145       1629.000000  
Junction_1450      1534.000000  
Junction_1451      1534.000000  
Junction_1452      1520.000000  
Junction_1453      1552.000000  
Junction_1454      1520.000000  
Junction_1455      1520.000000  
Junction_1456      1513.000000  
Junction_1457      1541.000000  
Junction_1458      1527.000000  
Junction_1459      1523.000000  
Junction_146       1643.000000  
Junction_1460      1516.000000  
Junction_1461      1523.000000  
Junction_1462      1516.000000  
Junction_1463      1526.000000  
Junction_1464      1526.000000  
Junction_1465      1515.000000  
Junction_1466      1515.000000  
Junction_1467      1535.000000  
Junction_1468      1535.000000  
Junction_1469      1549.000000  
Junction_147       1570.000000  
Junction_1470      1556.000000  
Junction_1471      1544.000000  
Junction_1472      1544.000000  
Junction_1473      1551.000000  
Junction_1474      1552.000000  
Junction_1475      1552.000000  
Junction_1476      1552.000000  
Junction_1477      1552.000000  
Junction_1478      1552.000000  
Junction_1479      1552.000000  
Junction_148       1661.000000  
Junction_1480      1553.000000  
Junction_1481      1552.000000  
Junction_1482      1552.000000  
Junction_1483      1644.000000  
Junction_1484      1644.000000  
Junction_1485      1644.000000  
Junction_1486      1644.000000  
Junction_1487      1644.000000  
Junction_1488      1644.000000  
Junction_1489      1644.000000  
Junction_149       1661.000000  
Junction_1490      1644.000000  
Junction_1491      1644.000000  
Junction_1492      1644.000000  
Junction_1493      1632.000000  
Junction_1494      1640.000000  
Junction_1495      1644.000000  
Junction_1496      1644.000000  
Junction_1497      1644.000000  
Junction_1498      1644.000000  
Junction_1499      1644.000000  
Junction_15        1556.000000  
Junction_150       1575.000000  
Junction_1500      1644.000000  
Junction_1501      1644.000000  
Junction_1502      1640.000000  
Junction_1503      1632.000000  
Junction_1504      1640.000000  
Junction_1505      1632.000000  
Junction_1506      1640.000000  
Junction_1507      1632.000000  
Junction_1508      1631.000000  
Junction_1509      1631.000000  
Junction_151       1663.000000  
Junction_1510      1640.000000  
Junction_1511      1631.000000  
Junction_1512      1640.000000  
Junction_1513      1631.000000  
Junction_1514      1631.000000  
Junction_1515      1632.000000  
Junction_1516      1631.000000  
Junction_1517      1631.000000  
Junction_1518      1631.000000  
Junction_1519      1631.000000  
Junction_152       1663.000000  
Junction_1520      1631.000000  
Junction_1521      1631.000000  
Junction_1522      1631.000000  
Junction_1523      1631.000000  
Junction_1524      1631.000000  
Junction_1525      1631.000000  
Junction_1526      1631.000000  
Junction_1527      1640.000000  
Junction_1528      1640.000000  
Junction_1529      1640.000000  
Junction_153       1577.000000  
Junction_1530      1640.000000  
Junction_1531      1640.000000  
Junction_1532      1640.000000  
Junction_1533      1640.000000  
Junction_1534      1644.000000  
Junction_1535      1640.000000  
Junction_1536      1640.000000  
Junction_1537      1640.000000  
Junction_1538      1640.000000  
Junction_1539      1644.000000  
Junction_154       1618.000000  
Junction_1540      1644.000000  
Junction_1541      1644.000000  
Junction_1542      1644.000000  
Junction_1543      1644.000000  
Junction_1544      1644.000000  
Junction_1545      1644.000000  
Junction_1546      1644.000000  
Junction_1547      1669.000000  
Junction_1548      1669.000000  
Junction_1549      1594.000000  
Junction_155       1536.000000  
Junction_1550      1594.000000  
Junction_1551      1599.000000  
Junction_1552      1599.000000  
Junction_1553      1593.000000  
Junction_1554      1596.000000  
Junction_1555      1587.000000  
Junction_1556      1595.000000  
Junction_1557      1592.000000  
Junction_1558      1592.000000  
Junction_1559      1587.000000  
Junction_156       1419.000000  
Junction_1560      1592.000000  
Junction_1561      1592.000000  
Junction_1562      1592.000000  
Junction_1563      1592.000000  
Junction_1564      1597.000000  
Junction_1565      1598.000000  
Junction_1566      1603.000000  
Junction_1567      1667.000000  
Junction_1568      1670.000000  
Junction_1569      1661.000000  
Junction_157       1618.000000  
Junction_1570      1661.000000  
Junction_1571      1663.000000  
Junction_1572      1663.000000  
Junction_1573      1657.000000  
Junction_1574      1657.000000  
Junction_1575      1657.000000  
Junction_1576      1658.000000  
Junction_1577      1657.000000  
Junction_1578      1650.000000  
Junction_1579      1646.000000  
Junction_158       1553.000000  
Junction_1580      1646.000000  
Junction_1581      1646.000000  
Junction_1582      1646.000000  
Junction_1583      1655.000000  
Junction_1584      1647.000000  
Junction_1585      1655.000000  
Junction_1586      1655.000000  
Junction_1587      1647.000000  
Junction_1588      1647.000000  
Junction_1589      1647.000000  
Junction_159       1673.000000  
Junction_1590      1647.000000  
Junction_1591      1642.000000  
Junction_1592      1647.000000  
Junction_1593      1650.000000  
Junction_1594      1634.000000  
Junction_1595      1642.000000  
Junction_1596      1634.000000  
Junction_1597      1642.000000  
Junction_1598      1642.000000  
Junction_1599      1655.000000  
Junction_16        1433.000000  
Junction_160       1577.000000  
Junction_1600      1650.000000  
Junction_1601      1642.000000  
Junction_1602      1642.000000  
Junction_1603      1647.000000  
Junction_1604      1647.000000  
Junction_1605      1647.000000  
Junction_1606      1636.000000  
Junction_1607      1637.000000  
Junction_1608      1637.000000  
Junction_1609      1637.000000  
Junction_161       1670.000000  
Junction_1610      1632.000000  
Junction_1611      1637.000000  
Junction_1612      1637.000000  
Junction_1613      1647.000000  
Junction_1614      1647.000000  
Junction_1615      1628.000000  
Junction_1616      1628.000000  
Junction_1617      1637.000000  
Junction_1618      1637.000000  
Junction_1619      1626.000000  
Junction_162       1666.000000  
Junction_1620      1631.000000  
Junction_1621      1631.000000  
Junction_1622      1631.000000  
Junction_1623      1631.000000  
Junction_1624      1631.000000  
Junction_1625      1621.000000  
Junction_1626      1621.000000  
Junction_1627      1649.000000  
Junction_1628      1649.000000  
Junction_1629      1644.000000  
Junction_163       1659.000000  
Junction_1630      1644.000000  
Junction_1631      1644.000000  
Junction_1632      1644.000000  
Junction_1633      1662.000000  
Junction_1634      1662.000000  
Junction_1635      1666.000000  
Junction_1636      1666.000000  
Junction_1637      1662.000000  
Junction_1638      1662.000000  
Junction_1639      1666.000000  
Junction_164       1653.000000  
Junction_1640      1666.000000  
Junction_1641      1662.000000  
Junction_1642      1666.000000  
Junction_1643      1662.000000  
Junction_1644      1662.000000  
Junction_1645      1661.000000  
Junction_1646      1660.000000  
Junction_1647      1662.000000  
Junction_1648      1660.000000  
Junction_1649      1657.000000  
Junction_165       1631.000000  
Junction_1650      1657.000000  
Junction_1651      1650.000000  
Junction_1652      1650.000000  
Junction_1653      1650.000000  
Junction_1654      1650.000000  
Junction_1655      1588.000000  
Junction_1656      1588.000000  
Junction_1657      1590.000000  
Junction_1658      1588.000000  
Junction_1659      1592.000000  
Junction_166       1644.000000  
Junction_1660      1588.000000  
Junction_1661      1587.000000  
Junction_1662      1588.000000  
Junction_1663      1588.000000  
Junction_1664      1588.000000  
Junction_1665      1591.000000  
Junction_1666      1591.000000  
Junction_1667      1595.000000  
Junction_1668      1595.000000  
Junction_1669      1665.000000  
Junction_167       1631.000000  
Junction_1670      1665.000000  
Junction_1671      1667.000000  
Junction_1672      1667.000000  
Junction_1673      1667.000000  
Junction_1674      1667.000000  
Junction_1675      1667.000000  
Junction_1676      1667.000000  
Junction_1677      1667.000000  
Junction_1678      1667.000000  
Junction_1679      1670.000000  
Junction_168       1614.000000  
Junction_1680      1670.000000  
Junction_1681      1670.000000  
Junction_1682      1670.000000  
Junction_1683      1670.000000  
Junction_1684      1670.000000  
Junction_1685      1668.000000  
Junction_1686      1670.000000  
Junction_1687      1670.000000  
Junction_1688      1670.000000  
Junction_1689      1668.000000  
Junction_169       1534.000000  
Junction_1690      1669.000000  
Junction_1691      1666.000000  
Junction_1692      1669.000000  
Junction_1693      1665.000000  
Junction_1694      1665.000000  
Junction_1695      1665.000000  
Junction_1696      1665.000000  
Junction_1697      1665.000000  
Junction_1698      1665.000000  
Junction_1699      1665.000000  
Junction_17        1433.000000  
Junction_170       1637.000000  
Junction_1700      1665.000000  
Junction_1701      1661.000000  
Junction_1702      1661.000000  
Junction_1703      1621.000000  
Junction_1704      1621.000000  
Junction_1705      1619.000000  
Junction_1706      1619.000000  
Junction_1707      1621.000000  
Junction_1708      1621.000000  
Junction_1709      1619.000000  
Junction_171       1614.000000  
Junction_1710      1619.000000  
Junction_1711      1619.000000  
Junction_1712      1619.000000  
Junction_1713      1618.000000  
Junction_1714      1618.000000  
Junction_1715      1619.000000  
Junction_1716      1619.000000  
Junction_1717      1661.000000  
Junction_1718      1661.000000  
Junction_1719      1661.000000  
Junction_172       1663.000000  
Junction_1720      1661.000000  
Junction_1721      1661.000000  
Junction_1722      1661.000000  
Junction_1723      1658.000000  
Junction_1724      1658.000000  
Junction_1725      1639.000000  
Junction_1726      1639.000000  
Junction_1727      1639.000000  
Junction_1728      1639.000000  
Junction_1729      1622.000000  
Junction_173       1614.000000  
Junction_1730      1614.000000  
Junction_1731      1622.000000  
Junction_1732      1614.000000  
Junction_1733      1625.000000  
Junction_1734      1614.000000  
Junction_1735      1614.000000  
Junction_1736      1625.000000  
Junction_1737      1646.000000  
Junction_1738      1646.000000  
Junction_1739      1617.000000  
Junction_174       1669.000000  
Junction_1740      1617.000000  
Junction_1741      1634.000000  
Junction_1742      1617.000000  
Junction_1743      1626.000000  
Junction_1744      1626.000000  
Junction_1745      1609.000000  
Junction_1746      1626.000000  
Junction_1747      1647.000000  
Junction_1748      1647.000000  
Junction_1749      1636.000000  
Junction_175       1619.000000  
Junction_1750      1653.000000  
Junction_1751      1619.000000  
Junction_1752      1646.000000  
Junction_1753      1645.000000  
Junction_1754      1646.000000  
Junction_1755      1646.000000  
Junction_1756      1638.000000  
Junction_1757      1632.000000  
Junction_1758      1646.000000  
Junction_1759      1650.000000  
Junction_176       1612.000000  
Junction_1760      1655.000000  
Junction_1761      1655.000000  
Junction_1762      1655.000000  
Junction_1763      1647.000000  
Junction_1764      1647.000000  
Junction_1765      1659.000000  
Junction_1766      1663.000000  
Junction_1767      1655.000000  
Junction_1768      1657.000000  
Junction_1769      1659.000000  
Junction_177       1619.000000  
Junction_1770      1663.000000  
Junction_1771      1452.000000  
Junction_1772      1452.000000  
Junction_1773      1484.000000  
Junction_1774      1533.000000  
Junction_1775      1470.000000  
Junction_1776      1463.000000  
Junction_1777      1519.000000  
Junction_1778      1519.000000  
Junction_1779      1531.000000  
Junction_178       1619.000000  
Junction_1780      1531.000000  
Junction_1781      1531.000000  
Junction_1782      1531.000000  
Junction_1783      1654.000000  